/*--------------------------------*- C++ -*----------------------------------*\
| =========                 |                                                 |
| \\      /  F ield         | OpenFOAM: The Open Source CFD Toolbox           |
|  \\    /   O peration     | Version:  2.2.1                                 |
|   \\  /    A nd           | Web:      www.OpenFOAM.org                      |
|    \\/     M anipulation  |                                                 |
\*---------------------------------------------------------------------------*/
FoamFile
{
    version     2.0;
    format      ascii;
    class       dictionary;
    location    "system";
    object      controlDict;
}
// * * * * * * * * * * * * * * * * * * * * * * * * * * * * * * * * * * * * * //

application     icoFoam;

startFrom       startTime;

startTime       0;

stopAt          endTime;

endTime         0.5;

deltaT          0.005;

writeControl    timeStep;

writeInterval   100;

purgeWrite      0;

writeFormat     ascii;

writePrecision  6;

writeCompression off;

timeFormat      general;

timePrecision   6;

runTimeModifiable false;

functions
{
    Lambda2
    {
        functionObjectLibs  ( "libutilityFunctionObjects.so" );
        type                Lambda2;
        
        outputControl       outputTime;
    }
    
    Q
    {
        functionObjectLibs  ( "libutilityFunctionObjects.so" );
        type                Q;
        
        outputControl       outputTime;
    }
    
    // Only available if you have swak4Foam installed
    // (uncomment if you have swak4Foam)
    /*
    vorticity
    {
        functionObjectLibs  ( "libswakFunctionObjects.so" );
        type                expressionField;
        
        outputControl       outputTime;

        fieldName           vorticity;
        expression          "curl(U)";
        autowrite           true;
    }
    */
    
    h5Data
    {
        // Write the solution (Eulerian and Lagrangian fields)
        // into a HDF5 container
        type                h5Write;
        
        // Where to load it from
        functionObjectLibs  ( "libIOh5Write.so" );
        
        // Volume fields to write
        objectNames         ( U p Lambda2 Q vorticity );
        
        // Kinematic clouds to write (leave blank to skip)
        cloudNames          (  );
        
        // Attributes to write for particles. Valid choices are:
        //  - origProc        = Original process (from where it was injected)
        //  - origId          = ID on orignal process
        //  - cell            = Current cell (on local process)
        //  - currProc        = Current process
        //  - rho             = Particle density
        //  - d               = Particle diameter
        //  - age             = Particle age
        //  - position        = Position in space
        //  - U               = Particle velocity
        //  - Us              = Slip velocity Us = U - Uc
        cloudAttribs        (  );
        
        // HDF5 chunk size (in number of bytes, 0 = no chunking)
        chunkSize           0;
        
        // Write interval (in number of iterations)
        writeInterval       5;
    }
}

// ************************************************************************* //
