/*--------------------------------*- C++ -*----------------------------------*\
| =========                 |                                                 |
| \\      /  F ield         | OpenFOAM: The Open Source CFD Toolbox           |
|  \\    /   O peration     | Version:  2.2.1                                 |
|   \\  /    A nd           | Web:      www.OpenFOAM.org                      |
|    \\/     M anipulation  |                                                 |
\*---------------------------------------------------------------------------*/
FoamFile
{
    version     2.0;
    format      ascii;
    class       dictionary;
    location    "system";
    object      controlDict;
}
// * * * * * * * * * * * * * * * * * * * * * * * * * * * * * * * * * * * * * //

application     icoFoam;

startFrom       startTime;

startTime       0;

stopAt          endTime;

endTime         0.5;

deltaT          0.005;

writeControl    timeStep;

writeInterval   100;

purgeWrite      0;

writeFormat     ascii;

writePrecision  6;

writeCompression off;

timeFormat      general;

timePrecision   6;

runTimeModifiable true;

functions
{
    h5Data
    {
        // Write the solution (Eulerian and Lagrangian fields)
        // into a HDF5 container
        type                h5Write;
        
        // Where to load it from
        functionObjectLibs  ( "libIOh5Write.so" );
        
        // Volume fields to write
        objectNames         ( U p );
        
        // Kinematic clouds to write (leave blank to skip)
        cloudNames          (  );
        
        // Write interval (in number of iterations)
        writeInterval       5;
    }
}

// ************************************************************************* //
